data_image0
_chemical_formula_structural       C3H3CH3CHCH3CHCH3C2OH2SO3HCH2CH3CHCH3CHCH3CHCH5C3H3CH3CHCH3CHCH3C2OH2SO3HCH2CH3CHCH3CHCH3CHCH5
_chemical_formula_sum              "C36 H72 O8 S2"
_cell_length_a       7.529
_cell_length_b       5.007
_cell_length_c       1000
_cell_angle_alpha    90
_cell_angle_beta     90
_cell_angle_gamma    90

_space_group_name_H-M_alt    "P 1"
_space_group_IT_number       1

loop_
  _space_group_symop_operation_xyz
  'x, y, z'

loop_
  _atom_site_type_symbol
  _atom_site_label
  _atom_site_symmetry_multiplicity
  _atom_site_fract_x
  _atom_site_fract_y
  _atom_site_fract_z
  _atom_site_occupancy
  C   C1        1.0  0.97397  0.92810  0.00250  1.0000
  C   C2        1.0  0.03068  0.00080  0.00392  1.0000
  C   C3        1.0  0.92894  0.83423  0.00496  1.0000
  H   H1        1.0  0.00372  0.21650  0.00409  1.0000
  H   H2        1.0  0.17572  0.96485  0.00403  1.0000
  H   H3        1.0  0.95604  0.61853  0.00478  1.0000
  C   C4        1.0  0.98326  0.90833  0.00639  1.0000
  H   H4        1.0  0.78404  0.87038  0.00483  1.0000
  H   H5        1.0  0.12777  0.87118  0.00652  1.0000
  H   H6        1.0  0.95630  0.12403  0.00656  1.0000
  C   C5        1.0  0.87807  0.74316  0.00741  1.0000
  H   H7        1.0  0.90517  0.52726  0.00724  1.0000
  C   C6        1.0  0.92735  0.81825  0.00885  1.0000
  H   H8        1.0  0.73383  0.78011  0.00726  1.0000
  H   H9        1.0  0.07119  0.78011  0.00902  1.0000
  H   H10       1.0  0.90052  0.03455  0.00901  1.0000
  C   C7        1.0  0.81724  0.65528  0.00985  1.0000
  H   H11       1.0  0.84434  0.43879  0.00970  1.0000
  C   C8        1.0  0.85948  0.73178  0.01129  1.0000
  H   H12       1.0  0.67379  0.69323  0.00966  1.0000
  H   H13       1.0  0.00199  0.69203  0.01151  1.0000
  H   H14       1.0  0.83238  0.94827  0.01143  1.0000
  C   C9        1.0  0.74525  0.57440  0.01225  1.0000
  C   C10       1.0  0.75176  0.60715  0.01359  1.0000
  O   O1        1.0  0.06920  0.08648  0.00159  1.0000
  H   H15       1.0  0.82893  0.96685  0.00240  1.0000
  H   H16       1.0  0.00332  0.71260  0.00233  1.0000
  S   S1        1.0  0.00000  0.00000  0.00000  1.0000
  O   O2        1.0  0.77527  0.01738  0.99972  1.0000
  O   O3        1.0  0.06960  0.72099  0.99963  1.0000
  O   O4        1.0  0.09271  0.18594  0.99900  1.0000
  H   H17       1.0  0.65201  0.42900  0.01185  1.0000
  C   C11       1.0  0.87488  0.80348  0.01426  1.0000
  H   H18       1.0  0.66343  0.48692  0.01420  1.0000
  H   H19       1.0  0.84739  0.00739  0.01387  1.0000
  C   C12       1.0  0.84606  0.80228  0.01578  1.0000
  H   H20       1.0  0.01474  0.74935  0.01403  1.0000
  H   H21       1.0  0.70580  0.85800  0.01599  1.0000
  H   H22       1.0  0.87077  0.59736  0.01616  1.0000
  C   C13       1.0  0.96972  0.00180  0.01648  1.0000
  H   H23       1.0  0.94833  0.20252  0.01603  1.0000
  C   C14       1.0  0.93293  0.02716  0.01799  1.0000
  H   H24       1.0  0.11064  0.94428  0.01631  1.0000
  H   H25       1.0  0.79307  0.09187  0.01814  1.0000
  H   H26       1.0  0.02165  0.18674  0.01837  1.0000
  C   C15       1.0  0.96693  0.76792  0.01878  1.0000
  H   H27       1.0  0.87940  0.60795  0.01838  1.0000
  C   C16       1.0  0.92443  0.79349  0.02028  1.0000
  H   H28       1.0  0.10732  0.70401  0.01865  1.0000
  H   H29       1.0  0.94302  0.59317  0.02074  1.0000
  H   H30       1.0  0.78271  0.85161  0.02040  1.0000
  C   C17       1.0  0.04423  0.99301  0.02102  1.0000
  H   H31       1.0  0.02590  0.19752  0.02061  1.0000
  C   C18       1.0  0.00000  0.00000  0.02251  1.0000
  H   H32       1.0  0.18555  0.93349  0.02089  1.0000
  H   H33       1.0  0.01979  0.79968  0.02296  1.0000
  H   H34       1.0  0.86001  0.06311  0.02266  1.0000
  H   H35       1.0  0.08846  0.14480  0.02302  1.0000
  H   H36       1.0  0.71512  0.90357  0.00033  1.0000
  C   C19       1.0  0.40727  0.43448  0.00250  1.0000
  C   C20       1.0  0.35893  0.51976  0.00392  1.0000
  C   C21       1.0  0.46970  0.36678  0.00496  1.0000
  H   H37       1.0  0.21548  0.47922  0.00410  1.0000
  H   H38       1.0  0.38283  0.73786  0.00403  1.0000
  H   H39       1.0  0.61314  0.40752  0.00478  1.0000
  C   C22       1.0  0.42042  0.44846  0.00639  1.0000
  H   H40       1.0  0.44566  0.14888  0.00483  1.0000
  H   H41       1.0  0.44513  0.66576  0.00652  1.0000
  H   H42       1.0  0.27698  0.40792  0.00656  1.0000
  C   C23       1.0  0.53026  0.29029  0.00741  1.0000
  H   H43       1.0  0.67384  0.33103  0.00724  1.0000
  C   C24       1.0  0.48032  0.36438  0.00885  1.0000
  H   H44       1.0  0.50569  0.07339  0.00726  1.0000
  H   H45       1.0  0.50569  0.58068  0.00902  1.0000
  H   H46       1.0  0.33648  0.32404  0.00901  1.0000
  C   C25       1.0  0.58870  0.19881  0.00985  1.0000
  H   H47       1.0  0.73268  0.23956  0.00970  1.0000
  C   C26       1.0  0.53783  0.26232  0.01129  1.0000
  H   H48       1.0  0.56347  0.98312  0.00966  1.0000
  H   H49       1.0  0.56427  0.47662  0.01151  1.0000
  H   H50       1.0  0.39386  0.22158  0.01143  1.0000
  C   C27       1.0  0.64250  0.09057  0.01225  1.0000
  C   C28       1.0  0.62071  0.10035  0.01359  1.0000
  O   O5        1.0  0.30195  0.57768  0.00159  1.0000
  H   H51       1.0  0.38151  0.21639  0.00240  1.0000
  H   H52       1.0  0.55059  0.47862  0.00233  1.0000
  S   S2        1.0  0.35946  0.47363  0.00000  1.0000
  O   O6        1.0  0.34790  0.13570  0.99972  1.0000
  O   O7        1.0  0.54501  0.57828  0.99963  1.0000
  O   O8        1.0  0.23580  0.61303  0.99900  1.0000
  H   H53       1.0  0.73919  0.95036  0.01185  1.0000
  C   C29       1.0  0.49015  0.28549  0.01426  1.0000
  H   H54       1.0  0.70067  0.96754  0.01420  1.0000
  H   H55       1.0  0.35454  0.24415  0.01387  1.0000
  C   C30       1.0  0.49095  0.24215  0.01578  1.0000
  H   H56       1.0  0.52615  0.49580  0.01403  1.0000
  H   H57       1.0  0.45389  0.03125  0.01599  1.0000
  H   H58       1.0  0.62722  0.27930  0.01616  1.0000
  C   C31       1.0  0.35826  0.42809  0.01648  1.0000
  H   H59       1.0  0.22478  0.39594  0.01603  1.0000
  C   C32       1.0  0.34139  0.37277  0.01799  1.0000
  H   H60       1.0  0.39651  0.64000  0.01631  1.0000
  H   H61       1.0  0.29836  0.16246  0.01814  1.0000
  H   H62       1.0  0.23527  0.50618  0.01837  1.0000
  C   C33       1.0  0.51379  0.42390  0.01878  1.0000
  H   H63       1.0  0.62018  0.29228  0.01838  1.0000
  C   C34       1.0  0.49679  0.35999  0.02028  1.0000
  H   H64       1.0  0.55630  0.63500  0.01865  1.0000
  H   H65       1.0  0.63001  0.38795  0.02074  1.0000
  H   H66       1.0  0.45814  0.14689  0.02040  1.0000
  C   C35       1.0  0.36411  0.54014  0.02102  1.0000
  H   H67       1.0  0.22810  0.51257  0.02061  1.0000
  C   C36       1.0  0.35946  0.47363  0.02251  1.0000
  H   H68       1.0  0.40369  0.75264  0.02089  1.0000
  H   H69       1.0  0.49268  0.50339  0.02296  1.0000
  H   H70       1.0  0.31749  0.26312  0.02266  1.0000
  H   H71       1.0  0.26316  0.60664  0.02302  1.0000
  H   H72       1.0  0.42358  0.04525  0.00033  1.0000
